Circuit: * C:\Users\ngloc\Documents\UTN\TC2\TS3\Draft1.asc

Direct Newton iteration for .op point succeeded.

Date: Mon Jun 13 16:21:53 2022
Total elapsed time: 0.034 seconds.

tnom = 27
temp = 27
method = trap
totiter = 21
traniter = 0
tranpoints = 0
accept = 0
rejected = 0
matrix size = 70
fillins = 67
solver = Normal
Matrix Compiler1:     377 opcodes
Matrix Compiler2: 7.04 KB object code size
