Circuit: * C:\Users\ngloc\Documents\UTN\TC2\TS3\TS3.asc

Direct Newton iteration for .op point succeeded.

Date: Mon Jun 13 16:12:27 2022
Total elapsed time: 0.053 seconds.

tnom = 27
temp = 27
method = trap
totiter = 11
traniter = 0
tranpoints = 0
accept = 0
rejected = 0
matrix size = 41
fillins = 39
solver = Normal
Matrix Compiler1:     209 opcodes
Matrix Compiler2: 3.98 KB object code size
