Circuit: * C:\Users\ngloc\Documents\UTN\TC2\TS3\TS3_gic.asc

Direct Newton iteration for .op point succeeded.

Date: Mon Jun 13 16:27:44 2022
Total elapsed time: 0.068 seconds.

tnom = 27
temp = 27
method = trap
totiter = 11
traniter = 0
tranpoints = 0
accept = 0
rejected = 0
matrix size = 139
fillins = 230
solver = Normal
Matrix Compiler1:    1077 opcodes
Matrix Compiler2: 15.87 KB object code size
