Circuit: * C:\Users\ngloc\Documents\UTN\TC2\TS2\TS2.asc

Direct Newton iteration for .op point succeeded.

Date: Mon Jun 13 14:11:25 2022
Total elapsed time: 0.070 seconds.

tnom = 27
temp = 27
method = trap
totiter = 11
traniter = 0
tranpoints = 0
accept = 0
rejected = 0
matrix size = 102
fillins = 113
solver = Normal
Matrix Compiler1:     553 opcodes
Matrix Compiler2: 10.53 KB object code size
